 xtb: 6.7.1 (edcfbbe)
          05142615063D

 57 58  0     0  0            999 V2000
    0.7510   -0.5692   -0.7160 I   0  0  0  0  0  0  0  0  0  0  0  0
    1.8252    0.7413    0.6048 C   0  0  0  0  0  0  0  0  0  0  0  0
    1.9562    0.2814    1.9023 C   0  0  0  0  0  0  0  0  0  0  0  0
    2.4084    1.8967    0.1201 C   0  0  0  0  0  0  0  0  0  0  0  0
    2.6925    1.0684    2.7850 C   0  0  0  0  0  0  0  0  0  0  0  0
    1.5183   -0.6669    2.1932 H   0  0  0  0  0  0  0  0  0  0  0  0
    3.1523    2.6568    1.0204 C   0  0  0  0  0  0  0  0  0  0  0  0
    2.2805    2.1940   -0.9112 H   0  0  0  0  0  0  0  0  0  0  0  0
    3.2833    2.2501    2.3455 C   0  0  0  0  0  0  0  0  0  0  0  0
    2.8143    0.7420    3.8121 H   0  0  0  0  0  0  0  0  0  0  0  0
    3.6187    3.5744    0.6790 H   0  0  0  0  0  0  0  0  0  0  0  0
    3.8593    2.8544    3.0389 H   0  0  0  0  0  0  0  0  0  0  0  0
   -1.3681   -1.0373    0.7632 H   0  0  0  0  0  0  0  0  0  0  0  0
   -1.2717    0.2385   -0.6754 O   0  0  0  0  0  0  0  0  0  0  0  0
   -2.0644   -0.3679    0.2773 N   0  0  0  0  0  0  0  0  0  0  0  0
   -2.5166    0.6671    1.3062 C   0  0  0  0  0  0  0  0  0  0  0  0
   -3.1078   -1.2490   -0.4056 C   0  0  0  0  0  0  0  0  0  0  0  0
   -3.4041   -0.0656    2.3193 C   0  0  0  0  0  0  0  0  0  0  0  0
   -3.2034    1.8512    0.6307 C   0  0  0  0  0  0  0  0  0  0  0  0
   -1.2421    1.1718    1.9785 C   0  0  0  0  0  0  0  0  0  0  0  0
   -3.9594   -1.8841    0.7004 C   0  0  0  0  0  0  0  0  0  0  0  0
   -2.3349   -2.3338   -1.1607 C   0  0  0  0  0  0  0  0  0  0  0  0
   -3.9393   -0.4472   -1.4067 C   0  0  0  0  0  0  0  0  0  0  0  0
   -4.5364   -0.8622    1.6772 C   0  0  0  0  0  0  0  0  0  0  0  0
   -2.7745   -0.7477    2.9074 H   0  0  0  0  0  0  0  0  0  0  0  0
   -3.7930    0.6837    3.0163 H   0  0  0  0  0  0  0  0  0  0  0  0
   -2.5684    2.2309   -0.1742 H   0  0  0  0  0  0  0  0  0  0  0  0
   -4.2021    1.6277    0.2561 H   0  0  0  0  0  0  0  0  0  0  0  0
   -3.3012    2.6426    1.3790 H   0  0  0  0  0  0  0  0  0  0  0  0
   -0.6495    0.3391    2.3686 H   0  0  0  0  0  0  0  0  0  0  0  0
   -0.6462    1.7585    1.2722 H   0  0  0  0  0  0  0  0  0  0  0  0
   -1.5223    1.8130    2.8186 H   0  0  0  0  0  0  0  0  0  0  0  0
   -4.7532   -2.4611    0.2144 H   0  0  0  0  0  0  0  0  0  0  0  0
   -3.3382   -2.6014    1.2539 H   0  0  0  0  0  0  0  0  0  0  0  0
   -1.8098   -1.9054   -2.0192 H   0  0  0  0  0  0  0  0  0  0  0  0
   -1.6159   -2.8432   -0.5138 H   0  0  0  0  0  0  0  0  0  0  0  0
   -3.0502   -3.0682   -1.5392 H   0  0  0  0  0  0  0  0  0  0  0  0
   -4.7579    0.1032   -0.9440 H   0  0  0  0  0  0  0  0  0  0  0  0
   -3.2998    0.2496   -1.9523 H   0  0  0  0  0  0  0  0  0  0  0  0
   -4.3776   -1.1473   -2.1229 H   0  0  0  0  0  0  0  0  0  0  0  0
   -5.2349   -0.1910    1.1659 H   0  0  0  0  0  0  0  0  0  0  0  0
   -5.1125   -1.3779    2.4508 H   0  0  0  0  0  0  0  0  0  0  0  0
    0.6497    1.2821   -2.1285 O   0  0  0  0  0  0  0  0  0  0  0  0
   -0.0347    2.3620   -1.8799 C   0  0  0  0  0  0  0  0  0  0  0  0
   -0.2238    2.8488   -0.7691 O   0  0  0  0  0  0  0  0  0  0  0  0
   -0.6244    3.0073   -3.1247 C   0  0  0  0  0  0  0  0  0  0  0  0
    0.1278    3.0664   -3.9134 H   0  0  0  0  0  0  0  0  0  0  0  0
   -1.4355    2.3724   -3.4937 H   0  0  0  0  0  0  0  0  0  0  0  0
   -1.0148    3.9968   -2.8890 H   0  0  0  0  0  0  0  0  0  0  0  0
    0.1152   -1.6213    0.6753 O   0  0  0  0  0  0  0  0  0  0  0  0
    3.0943   -2.1835    1.0960 O   0  0  0  0  0  0  0  0  0  0  0  0
    3.3664   -2.1435   -0.0825 C   0  0  0  0  0  0  0  0  0  0  0  0
    2.6206   -1.5705   -1.0229 O   0  0  0  0  0  0  0  0  0  0  0  0
    4.6218   -2.7552   -0.6704 C   0  0  0  0  0  0  0  0  0  0  0  0
    5.2015   -3.2266    0.1218 H   0  0  0  0  0  0  0  0  0  0  0  0
    4.3498   -3.4899   -1.4310 H   0  0  0  0  0  0  0  0  0  0  0  0
    5.2107   -1.9766   -1.1598 H   0  0  0  0  0  0  0  0  0  0  0  0
  1  2  1  0  0  0  0
  2  3  4  0  0  0  0
  2  4  4  0  0  0  0
  3  5  4  0  0  0  0
  3  6  1  0  0  0  0
  4  7  4  0  0  0  0
  4  8  1  0  0  0  0
  5  9  4  0  0  0  0
  7  9  4  0  0  0  0
  5 10  1  0  0  0  0
  7 11  1  0  0  0  0
  9 12  1  0  0  0  0
  1 14  1  0  0  0  0
 13 15  1  0  0  0  0
 14 15  1  0  0  0  0
 15 16  1  0  0  0  0
 15 17  1  0  0  0  0
 16 18  1  0  0  0  0
 16 19  1  0  0  0  0
 16 20  1  0  0  0  0
 17 21  1  0  0  0  0
 17 22  1  0  0  0  0
 17 23  1  0  0  0  0
 18 24  1  0  0  0  0
 21 24  1  0  0  0  0
 18 25  1  0  0  0  0
 18 26  1  0  0  0  0
 19 27  1  0  0  0  0
 19 28  1  0  0  0  0
 19 29  1  0  0  0  0
 20 30  1  0  0  0  0
 20 31  1  0  0  0  0
 20 32  1  0  0  0  0
 21 33  1  0  0  0  0
 21 34  1  0  0  0  0
 22 35  1  0  0  0  0
 22 36  1  0  0  0  0
 22 37  1  0  0  0  0
 23 38  1  0  0  0  0
 23 39  1  0  0  0  0
 23 40  1  0  0  0  0
 24 41  1  0  0  0  0
 24 42  1  0  0  0  0
  1 43  1  0  0  0  0
 43 44  4  0  0  0  0
 44 45  2  0  0  0  0
 44 46  1  0  0  0  0
 46 47  1  0  0  0  0
 46 48  1  0  0  0  0
 46 49  1  0  0  0  0
  1 50  2  0  0  0  0
 51 52  2  0  0  0  0
  1 53  1  0  0  0  0
 52 53  1  0  0  0  0
 52 54  1  0  0  0  0
 54 55  1  0  0  0  0
 54 56  1  0  0  0  0
 54 57  1  0  0  0  0
M  END
