 xtb: 6.7.1 (edcfbbe)
          05142615063D

 57 59  0     0  0            999 V2000
    0.7023   -0.4712   -0.7804 I   0  0  0  0  0  0  0  0  0  0  0  0
    1.8424    0.6805    0.6313 C   0  0  0  0  0  0  0  0  0  0  0  0
    1.9653    0.1294    1.8935 C   0  0  0  0  0  0  0  0  0  0  0  0
    2.4850    1.8308    0.2130 C   0  0  0  0  0  0  0  0  0  0  0  0
    2.7549    0.8178    2.8126 C   0  0  0  0  0  0  0  0  0  0  0  0
    1.4866   -0.8123    2.1326 H   0  0  0  0  0  0  0  0  0  0  0  0
    3.2804    2.4894    1.1477 C   0  0  0  0  0  0  0  0  0  0  0  0
    2.3682    2.2018   -0.7955 H   0  0  0  0  0  0  0  0  0  0  0  0
    3.4046    1.9915    2.4420 C   0  0  0  0  0  0  0  0  0  0  0  0
    2.8705    0.4180    3.8140 H   0  0  0  0  0  0  0  0  0  0  0  0
    3.7940    3.3992    0.8572 H   0  0  0  0  0  0  0  0  0  0  0  0
    4.0217    2.5166    3.1637 H   0  0  0  0  0  0  0  0  0  0  0  0
   -1.1630   -1.1264    0.6576 H   0  0  0  0  0  0  0  0  0  0  0  0
   -1.2730    0.3435   -0.6463 O   0  0  0  0  0  0  0  0  0  0  0  0
   -2.0459   -0.3604    0.2614 N   0  0  0  0  0  0  0  0  0  0  0  0
   -2.4899    0.5759    1.3699 C   0  0  0  0  0  0  0  0  0  0  0  0
   -3.0884   -1.1684   -0.4879 C   0  0  0  0  0  0  0  0  0  0  0  0
   -3.3635   -0.2426    2.3287 C   0  0  0  0  0  0  0  0  0  0  0  0
   -3.1951    1.8153    0.8173 C   0  0  0  0  0  0  0  0  0  0  0  0
   -1.2204    1.0371    2.0840 C   0  0  0  0  0  0  0  0  0  0  0  0
   -3.9277   -1.9093    0.5612 C   0  0  0  0  0  0  0  0  0  0  0  0
   -2.3374   -2.1855   -1.3543 C   0  0  0  0  0  0  0  0  0  0  0  0
   -3.9443   -0.2918   -1.4077 C   0  0  0  0  0  0  0  0  0  0  0  0
   -4.5001   -0.9851    1.6327 C   0  0  0  0  0  0  0  0  0  0  0  0
   -2.7240   -0.9719    2.8445 H   0  0  0  0  0  0  0  0  0  0  0  0
   -3.7465    0.4409    3.0936 H   0  0  0  0  0  0  0  0  0  0  0  0
   -2.5750    2.2720    0.0415 H   0  0  0  0  0  0  0  0  0  0  0  0
   -4.1939    1.6163    0.4298 H   0  0  0  0  0  0  0  0  0  0  0  0
   -3.2953    2.5359    1.6338 H   0  0  0  0  0  0  0  0  0  0  0  0
   -0.6318    0.1825    2.4283 H   0  0  0  0  0  0  0  0  0  0  0  0
   -0.6166    1.6671    1.4234 H   0  0  0  0  0  0  0  0  0  0  0  0
   -1.5054    1.6269    2.9594 H   0  0  0  0  0  0  0  0  0  0  0  0
   -4.7234   -2.4453    0.0329 H   0  0  0  0  0  0  0  0  0  0  0  0
   -3.2953   -2.6679    1.0420 H   0  0  0  0  0  0  0  0  0  0  0  0
   -1.8065   -1.6843   -2.1695 H   0  0  0  0  0  0  0  0  0  0  0  0
   -1.6308   -2.7771   -0.7671 H   0  0  0  0  0  0  0  0  0  0  0  0
   -3.0660   -2.8637   -1.8053 H   0  0  0  0  0  0  0  0  0  0  0  0
   -4.7543    0.2170   -0.8858 H   0  0  0  0  0  0  0  0  0  0  0  0
   -3.3188    0.4518   -1.9062 H   0  0  0  0  0  0  0  0  0  0  0  0
   -4.3969   -0.9300   -2.1715 H   0  0  0  0  0  0  0  0  0  0  0  0
   -5.2085   -0.2752    1.1916 H   0  0  0  0  0  0  0  0  0  0  0  0
   -5.0643   -1.5719    2.3633 H   0  0  0  0  0  0  0  0  0  0  0  0
    0.6698    1.4128   -2.0421 O   0  0  0  0  0  0  0  0  0  0  0  0
    0.0358    2.5095   -1.7016 C   0  0  0  0  0  0  0  0  0  0  0  0
   -0.1326    2.9020   -0.5562 O   0  0  0  0  0  0  0  0  0  0  0  0
   -0.4970    3.2821   -2.8950 C   0  0  0  0  0  0  0  0  0  0  0  0
    0.2787    3.3846   -3.6558 H   0  0  0  0  0  0  0  0  0  0  0  0
   -1.3183    2.7124   -3.3390 H   0  0  0  0  0  0  0  0  0  0  0  0
   -0.8580    4.2596   -2.5776 H   0  0  0  0  0  0  0  0  0  0  0  0
    0.0204   -1.5987    0.5772 O   0  0  0  0  0  0  0  0  0  0  0  0
    2.9373   -2.3612    0.9754 O   0  0  0  0  0  0  0  0  0  0  0  0
    3.2431   -2.2393   -0.1913 C   0  0  0  0  0  0  0  0  0  0  0  0
    2.5479   -1.5684   -1.0989 O   0  0  0  0  0  0  0  0  0  0  0  0
    4.4926   -2.8575   -0.7877 C   0  0  0  0  0  0  0  0  0  0  0  0
    5.0248   -3.4177   -0.0204 H   0  0  0  0  0  0  0  0  0  0  0  0
    4.2174   -3.5142   -1.6155 H   0  0  0  0  0  0  0  0  0  0  0  0
    5.1306   -2.0685   -1.1918 H   0  0  0  0  0  0  0  0  0  0  0  0
  1  2  1  0  0  0  0
  2  3  4  0  0  0  0
  2  4  4  0  0  0  0
  3  5  4  0  0  0  0
  3  6  1  0  0  0  0
  4  7  4  0  0  0  0
  4  8  1  0  0  0  0
  5  9  4  0  0  0  0
  7  9  4  0  0  0  0
  5 10  1  0  0  0  0
  7 11  1  0  0  0  0
  9 12  1  0  0  0  0
  1 14  1  0  0  0  0
 13 15  1  0  0  0  0
 14 15  1  0  0  0  0
 15 16  1  0  0  0  0
 15 17  1  0  0  0  0
 16 18  1  0  0  0  0
 16 19  1  0  0  0  0
 16 20  1  0  0  0  0
 17 21  1  0  0  0  0
 17 22  1  0  0  0  0
 17 23  1  0  0  0  0
 18 24  1  0  0  0  0
 21 24  1  0  0  0  0
 18 25  1  0  0  0  0
 18 26  1  0  0  0  0
 19 27  1  0  0  0  0
 19 28  1  0  0  0  0
 19 29  1  0  0  0  0
 20 30  1  0  0  0  0
 20 31  1  0  0  0  0
 20 32  1  0  0  0  0
 21 33  1  0  0  0  0
 21 34  1  0  0  0  0
 22 35  1  0  0  0  0
 22 36  1  0  0  0  0
 22 37  1  0  0  0  0
 23 38  1  0  0  0  0
 23 39  1  0  0  0  0
 23 40  1  0  0  0  0
 24 41  1  0  0  0  0
 24 42  1  0  0  0  0
  1 43  1  0  0  0  0
 43 44  4  0  0  0  0
 44 45  2  0  0  0  0
 44 46  1  0  0  0  0
 46 47  1  0  0  0  0
 46 48  1  0  0  0  0
 46 49  1  0  0  0  0
  1 50  2  0  0  0  0
 13 50  1  0  0  0  0
 51 52  2  0  0  0  0
  1 53  1  0  0  0  0
 52 53  1  0  0  0  0
 52 54  1  0  0  0  0
 54 55  1  0  0  0  0
 54 56  1  0  0  0  0
 54 57  1  0  0  0  0
M  END
