 xtb: 6.7.1 (edcfbbe)
          05142615063D

 57 58  0     0  0            999 V2000
    0.6895   -0.4636   -0.7859 I   0  0  0  0  0  0  0  0  0  0  0  0
    1.8352    0.6886    0.6249 C   0  0  0  0  0  0  0  0  0  0  0  0
    1.9574    0.1701    1.9005 C   0  0  0  0  0  0  0  0  0  0  0  0
    2.4880    1.8228    0.1770 C   0  0  0  0  0  0  0  0  0  0  0  0
    2.7477    0.8813    2.8015 C   0  0  0  0  0  0  0  0  0  0  0  0
    1.4875   -0.7671    2.1680 H   0  0  0  0  0  0  0  0  0  0  0  0
    3.2859    2.5025    1.0936 C   0  0  0  0  0  0  0  0  0  0  0  0
    2.3827    2.1685   -0.8415 H   0  0  0  0  0  0  0  0  0  0  0  0
    3.4037    2.0411    2.4017 C   0  0  0  0  0  0  0  0  0  0  0  0
    2.8600    0.5062    3.8126 H   0  0  0  0  0  0  0  0  0  0  0  0
    3.8072    3.3990    0.7769 H   0  0  0  0  0  0  0  0  0  0  0  0
    4.0223    2.5822    3.1101 H   0  0  0  0  0  0  0  0  0  0  0  0
   -0.8256   -1.4139    0.7947 H   0  0  0  0  0  0  0  0  0  0  0  0
   -1.2426    0.3053   -0.5696 O   0  0  0  0  0  0  0  0  0  0  0  0
   -2.0652   -0.3868    0.3075 N   0  0  0  0  0  0  0  0  0  0  0  0
   -2.5152    0.5633    1.3789 C   0  0  0  0  0  0  0  0  0  0  0  0
   -3.0896   -1.1397   -0.4887 C   0  0  0  0  0  0  0  0  0  0  0  0
   -3.4414   -0.2257    2.3135 C   0  0  0  0  0  0  0  0  0  0  0  0
   -3.1788    1.8298    0.8238 C   0  0  0  0  0  0  0  0  0  0  0  0
   -1.2617    0.9942    2.1411 C   0  0  0  0  0  0  0  0  0  0  0  0
   -3.9927   -1.8672    0.5174 C   0  0  0  0  0  0  0  0  0  0  0  0
   -2.3424   -2.1793   -1.3333 C   0  0  0  0  0  0  0  0  0  0  0  0
   -3.8986   -0.2490   -1.4438 C   0  0  0  0  0  0  0  0  0  0  0  0
   -4.5739   -0.9360    1.5778 C   0  0  0  0  0  0  0  0  0  0  0  0
   -2.8392   -0.9737    2.8467 H   0  0  0  0  0  0  0  0  0  0  0  0
   -3.8326    0.4672    3.0661 H   0  0  0  0  0  0  0  0  0  0  0  0
   -2.5394    2.2716    0.0551 H   0  0  0  0  0  0  0  0  0  0  0  0
   -4.1760    1.6565    0.4191 H   0  0  0  0  0  0  0  0  0  0  0  0
   -3.2750    2.5552    1.6370 H   0  0  0  0  0  0  0  0  0  0  0  0
   -0.7027    0.1233    2.4967 H   0  0  0  0  0  0  0  0  0  0  0  0
   -0.6205    1.6129    1.5063 H   0  0  0  0  0  0  0  0  0  0  0  0
   -1.5551    1.5855    3.0131 H   0  0  0  0  0  0  0  0  0  0  0  0
   -4.7865   -2.3727   -0.0436 H   0  0  0  0  0  0  0  0  0  0  0  0
   -3.4008   -2.6481    1.0134 H   0  0  0  0  0  0  0  0  0  0  0  0
   -1.7770   -1.6981   -2.1383 H   0  0  0  0  0  0  0  0  0  0  0  0
   -1.6658   -2.7865   -0.7258 H   0  0  0  0  0  0  0  0  0  0  0  0
   -3.0688   -2.8470   -1.8039 H   0  0  0  0  0  0  0  0  0  0  0  0
   -4.7096    0.2842   -0.9479 H   0  0  0  0  0  0  0  0  0  0  0  0
   -3.2405    0.4789   -1.9245 H   0  0  0  0  0  0  0  0  0  0  0  0
   -4.3459   -0.8746   -2.2216 H   0  0  0  0  0  0  0  0  0  0  0  0
   -5.2486   -0.2049    1.1185 H   0  0  0  0  0  0  0  0  0  0  0  0
   -5.1777   -1.5113    2.2859 H   0  0  0  0  0  0  0  0  0  0  0  0
    0.6536    1.3328   -2.0545 O   0  0  0  0  0  0  0  0  0  0  0  0
    0.0333    2.4551   -1.7263 C   0  0  0  0  0  0  0  0  0  0  0  0
   -0.1216    2.8611   -0.5898 O   0  0  0  0  0  0  0  0  0  0  0  0
   -0.4749    3.2083   -2.9386 C   0  0  0  0  0  0  0  0  0  0  0  0
    0.3138    3.2928   -3.6882 H   0  0  0  0  0  0  0  0  0  0  0  0
   -1.2933    2.6373   -3.3857 H   0  0  0  0  0  0  0  0  0  0  0  0
   -0.8318    4.1931   -2.6405 H   0  0  0  0  0  0  0  0  0  0  0  0
    0.1379   -1.6934    0.6247 O   0  0  0  0  0  0  0  0  0  0  0  0
    3.0193   -2.2716    1.0323 O   0  0  0  0  0  0  0  0  0  0  0  0
    3.2775   -2.2079   -0.1514 C   0  0  0  0  0  0  0  0  0  0  0  0
    2.5383   -1.5998   -1.0658 O   0  0  0  0  0  0  0  0  0  0  0  0
    4.5146   -2.8427   -0.7581 C   0  0  0  0  0  0  0  0  0  0  0  0
    5.0860   -3.3477    0.0195 H   0  0  0  0  0  0  0  0  0  0  0  0
    4.2185   -3.5529   -1.5329 H   0  0  0  0  0  0  0  0  0  0  0  0
    5.1232   -2.0711   -1.2348 H   0  0  0  0  0  0  0  0  0  0  0  0
  1  2  1  0  0  0  0
  2  3  4  0  0  0  0
  2  4  4  0  0  0  0
  3  5  4  0  0  0  0
  3  6  1  0  0  0  0
  4  7  4  0  0  0  0
  4  8  1  0  0  0  0
  5  9  4  0  0  0  0
  7  9  4  0  0  0  0
  5 10  1  0  0  0  0
  7 11  1  0  0  0  0
  9 12  1  0  0  0  0
  1 14  1  0  0  0  0
 14 15  1  0  0  0  0
 15 16  1  0  0  0  0
 15 17  1  0  0  0  0
 16 18  1  0  0  0  0
 16 19  1  0  0  0  0
 16 20  1  0  0  0  0
 17 21  1  0  0  0  0
 17 22  1  0  0  0  0
 17 23  1  0  0  0  0
 18 24  1  0  0  0  0
 21 24  1  0  0  0  0
 18 25  1  0  0  0  0
 18 26  1  0  0  0  0
 19 27  1  0  0  0  0
 19 28  1  0  0  0  0
 19 29  1  0  0  0  0
 20 30  1  0  0  0  0
 20 31  1  0  0  0  0
 20 32  1  0  0  0  0
 21 33  1  0  0  0  0
 21 34  1  0  0  0  0
 22 35  1  0  0  0  0
 22 36  1  0  0  0  0
 22 37  1  0  0  0  0
 23 38  1  0  0  0  0
 23 39  1  0  0  0  0
 23 40  1  0  0  0  0
 24 41  1  0  0  0  0
 24 42  1  0  0  0  0
  1 43  1  0  0  0  0
 43 44  1  0  0  0  0
 44 45  2  0  0  0  0
 44 46  1  0  0  0  0
 46 47  1  0  0  0  0
 46 48  1  0  0  0  0
 46 49  1  0  0  0  0
  1 50  1  0  0  0  0
 13 50  1  0  0  0  0
 51 52  2  0  0  0  0
  1 53  1  0  0  0  0
 52 53  1  0  0  0  0
 52 54  1  0  0  0  0
 54 55  1  0  0  0  0
 54 56  1  0  0  0  0
 54 57  1  0  0  0  0
M  END
