 xtb: 6.7.1 (edcfbbe)
          05142615063D

 57 60  0     0  0            999 V2000
    0.6908   -0.4659   -0.2204 I   0  0  0  0  0  0  0  0  0  0  0  0
    1.8787    0.9636    0.7341 C   0  0  0  0  0  0  0  0  0  0  0  0
    1.7761    1.0537    2.1019 C   0  0  0  0  0  0  0  0  0  0  0  0
    2.7657    1.7322    0.0122 C   0  0  0  0  0  0  0  0  0  0  0  0
    2.5709    1.9674    2.7739 C   0  0  0  0  0  0  0  0  0  0  0  0
    1.0982    0.4025    2.6269 H   0  0  0  0  0  0  0  0  0  0  0  0
    3.5582    2.6404    0.6906 C   0  0  0  0  0  0  0  0  0  0  0  0
    2.8378    1.6094   -1.0559 H   0  0  0  0  0  0  0  0  0  0  0  0
    3.4566    2.7633    2.0682 C   0  0  0  0  0  0  0  0  0  0  0  0
    2.4979    2.0537    3.8479 H   0  0  0  0  0  0  0  0  0  0  0  0
    4.2578    3.2535    0.1419 H   0  0  0  0  0  0  0  0  0  0  0  0
    4.0752    3.4781    2.5910 H   0  0  0  0  0  0  0  0  0  0  0  0
   -1.2104   -0.8553    1.0216 H   0  0  0  0  0  0  0  0  0  0  0  0
   -1.3267    0.1496   -0.5719 O   0  0  0  0  0  0  0  0  0  0  0  0
   -2.2040   -0.4395    0.3121 N   0  0  0  0  0  0  0  0  0  0  0  0
   -2.9477    0.5624    1.1125 C   0  0  0  0  0  0  0  0  0  0  0  0
   -2.8862   -1.5980   -0.3101 C   0  0  0  0  0  0  0  0  0  0  0  0
   -3.8562   -0.1809    2.1001 C   0  0  0  0  0  0  0  0  0  0  0  0
   -3.7220    1.5315    0.2160 C   0  0  0  0  0  0  0  0  0  0  0  0
   -1.9093    1.3649    1.9032 C   0  0  0  0  0  0  0  0  0  0  0  0
   -3.7778   -2.2613    0.7452 C   0  0  0  0  0  0  0  0  0  0  0  0
   -1.7974   -2.5855   -0.7468 C   0  0  0  0  0  0  0  0  0  0  0  0
   -3.6730   -1.1851   -1.5583 C   0  0  0  0  0  0  0  0  0  0  0  0
   -4.6974   -1.2653    1.4404 C   0  0  0  0  0  0  0  0  0  0  0  0
   -3.2315   -0.6467    2.8658 H   0  0  0  0  0  0  0  0  0  0  0  0
   -4.4984    0.5511    2.5914 H   0  0  0  0  0  0  0  0  0  0  0  0
   -3.0655    1.8810   -0.5766 H   0  0  0  0  0  0  0  0  0  0  0  0
   -4.6025    1.0783   -0.2263 H   0  0  0  0  0  0  0  0  0  0  0  0
   -4.0403    2.3906    0.8006 H   0  0  0  0  0  0  0  0  0  0  0  0
   -1.3479    0.7160    2.5709 H   0  0  0  0  0  0  0  0  0  0  0  0
   -1.2223    1.8679    1.2271 H   0  0  0  0  0  0  0  0  0  0  0  0
   -2.4098    2.1198    2.5042 H   0  0  0  0  0  0  0  0  0  0  0  0
   -4.3640   -3.0429    0.2606 H   0  0  0  0  0  0  0  0  0  0  0  0
   -3.1390   -2.7338    1.4944 H   0  0  0  0  0  0  0  0  0  0  0  0
   -1.2148   -2.1706   -1.5663 H   0  0  0  0  0  0  0  0  0  0  0  0
   -1.1159   -2.8162    0.0690 H   0  0  0  0  0  0  0  0  0  0  0  0
   -2.2617   -3.5099   -1.0809 H   0  0  0  0  0  0  0  0  0  0  0  0
   -4.6239   -0.7216   -1.3187 H   0  0  0  0  0  0  0  0  0  0  0  0
   -3.0766   -0.4889   -2.1419 H   0  0  0  0  0  0  0  0  0  0  0  0
   -3.8713   -2.0631   -2.1671 H   0  0  0  0  0  0  0  0  0  0  0  0
   -5.3992   -0.8279    0.7300 H   0  0  0  0  0  0  0  0  0  0  0  0
   -5.2860   -1.7814    2.2007 H   0  0  0  0  0  0  0  0  0  0  0  0
    0.6371    0.8453   -1.9166 O   0  0  0  0  0  0  0  0  0  0  0  0
    0.2332    2.0217   -1.5952 C   0  0  0  0  0  0  0  0  0  0  0  0
    0.0014    2.3747   -0.4533 O   0  0  0  0  0  0  0  0  0  0  0  0
    0.0703    2.9618   -2.7746 C   0  0  0  0  0  0  0  0  0  0  0  0
    0.9227    2.8621   -3.4404 H   0  0  0  0  0  0  0  0  0  0  0  0
   -0.8260    2.6774   -3.3213 H   0  0  0  0  0  0  0  0  0  0  0  0
   -0.0263    3.9845   -2.4226 H   0  0  0  0  0  0  0  0  0  0  0  0
   -0.0004   -1.0824    1.3924 O   0  0  0  0  0  0  0  0  0  0  0  0
    2.4782   -1.7792    0.5617 O   0  0  0  0  0  0  0  0  0  0  0  0
    3.2157   -1.5530   -0.4335 C   0  0  0  0  0  0  0  0  0  0  0  0
    2.8783   -0.7274   -1.3008 O   0  0  0  0  0  0  0  0  0  0  0  0
    4.5148   -2.3080   -0.5653 C   0  0  0  0  0  0  0  0  0  0  0  0
    4.8882   -2.5749    0.4181 H   0  0  0  0  0  0  0  0  0  0  0  0
    4.3189   -3.2187   -1.1272 H   0  0  0  0  0  0  0  0  0  0  0  0
    5.2374   -1.7084   -1.1097 H   0  0  0  0  0  0  0  0  0  0  0  0
  1  2  1  0  0  0  0
  2  3  4  0  0  0  0
  2  4  4  0  0  0  0
  3  5  4  0  0  0  0
  3  6  1  0  0  0  0
  4  7  4  0  0  0  0
  4  8  1  0  0  0  0
  5  9  4  0  0  0  0
  7  9  4  0  0  0  0
  5 10  1  0  0  0  0
  7 11  1  0  0  0  0
  9 12  1  0  0  0  0
  1 14  1  0  0  0  0
 13 15  1  0  0  0  0
 14 15  1  0  0  0  0
 15 16  1  0  0  0  0
 15 17  1  0  0  0  0
 16 18  1  0  0  0  0
 16 19  1  0  0  0  0
 16 20  1  0  0  0  0
 17 21  1  0  0  0  0
 17 22  1  0  0  0  0
 17 23  1  0  0  0  0
 18 24  1  0  0  0  0
 21 24  1  0  0  0  0
 18 25  1  0  0  0  0
 18 26  1  0  0  0  0
 19 27  1  0  0  0  0
 19 28  1  0  0  0  0
 19 29  1  0  0  0  0
 20 30  1  0  0  0  0
 20 31  1  0  0  0  0
 20 32  1  0  0  0  0
 21 33  1  0  0  0  0
 21 34  1  0  0  0  0
 22 35  1  0  0  0  0
 22 36  1  0  0  0  0
 22 37  1  0  0  0  0
 23 38  1  0  0  0  0
 23 39  1  0  0  0  0
 23 40  1  0  0  0  0
 24 41  1  0  0  0  0
 24 42  1  0  0  0  0
  1 43  1  0  0  0  0
 43 44  4  0  0  0  0
 44 45  2  0  0  0  0
 44 46  1  0  0  0  0
 46 47  1  0  0  0  0
 46 48  1  0  0  0  0
 46 49  1  0  0  0  0
  1 50  2  0  0  0  0
 13 50  1  0  0  0  0
  1 51  1  0  0  0  0
 51 52  4  0  0  0  0
  1 53  1  0  0  0  0
 52 53  4  0  0  0  0
 52 54  1  0  0  0  0
 54 55  1  0  0  0  0
 54 56  1  0  0  0  0
 54 57  1  0  0  0  0
M  END
